L24/1726525/GD.dss
! GERACAO DISTRIBUIDA — gerada de UGBT_tab e UGMT_tab
! Unidades com potencia nula sao omitidas (gerariam NaN).
! 53 unidades descartadas por potencia nula.
! 337 unidades de BT realocadas para o secundario do transformador (rede secundaria nao modelada).
! 0 unidades descartadas por ponto de conexao ausente da rede.
! irradiance=1 — ver o docstring: 1,0 e meio-dia de ceu claro, nao a ponta de carga.
! 10 barras tiveram a GD limitada a capacidade do transformador (201 kW cortados).
! inversores em pf=1 — ver o docstring de _pv: 0,92 e capacidade exigida pelo PRODIST, nao despacho.
! 0 unidades de MT ligadas pelo PAC da carga (casadas por CEG_GD): o PAC da UGMT nao existe na SSDMT.
New PVSystem.GD_e7b0b4f8ddd83efffa151044fe3738637d0955917bc779f82f43fb177a8f43f5 phases=3 bus1=node_437846795.1.2.3 conn=wye kv=13.8000 pf=1 pmpp=83.83 kva=83.83 irradiance=1 temperature=25 %cutin=20 %cutout=20 effcurve=MyEff P-TCurve=MyPvsT Daily=IRRAD_DIA TDaily=TEMP_DIA
New PVSystem.GD_7d30f5d219bf62a2f4d4b140e67525926df0369dc8dd8bbc4b5979481a310701 phases=3 bus1=node_437850077.1.2.3 conn=wye kv=13.8000 pf=1 pmpp=5.23 kva=5.23 irradiance=1 temperature=25 %cutin=20 %cutout=20 effcurve=MyEff P-TCurve=MyPvsT Daily=IRRAD_DIA TDaily=TEMP_DIA
New PVSystem.GD_c12e22ccc19ac4c3b32af3b729a23e83bdeb029895734c471e8997fa454f4a48 phases=3 bus1=node_2726024922.1.2.3 conn=wye kv=13.8000 pf=1 pmpp=171.01 kva=171.01 irradiance=1 temperature=25 %cutin=20 %cutout=20 effcurve=MyEff P-TCurve=MyPvsT Daily=IRRAD_DIA TDaily=TEMP_DIA
New PVSystem.GD_3f864fd322595354d73e5fb9bb400544a9ad49967feddae88727998c0f13cbac phases=3 bus1=node_1403833510.1.2.3 conn=wye kv=13.8000 pf=1 pmpp=86.85 kva=86.85 irradiance=1 temperature=25 %cutin=20 %cutout=20 effcurve=MyEff P-TCurve=MyPvsT Daily=IRRAD_DIA TDaily=TEMP_DIA
New PVSystem.GD_c4d0f1974c59f76f0c1d5bd83f7ccca94a21189401fb8012f49b8cd04ac90abe_1 phases=1 bus1=node_419254397.1.4 conn=wye kv=0.1270 pf=1 pmpp=2.67 kva=2.67 irradiance=1 temperature=25 %cutin=20 %cutout=20 effcurve=MyEff P-TCurve=MyPvsT Daily=IRRAD_DIA TDaily=TEMP_DIA
New PVSystem.GD_c4d0f1974c59f76f0c1d5bd83f7ccca94a21189401fb8012f49b8cd04ac90abe_2 phases=1 bus1=node_419254397.2.4 conn=wye kv=0.1270 pf=1 pmpp=2.67 kva=2.67 irradiance=1 temperature=25 %cutin=20 %cutout=20 effcurve=MyEff P-TCurve=MyPvsT Daily=IRRAD_DIA TDaily=TEMP_DIA
New PVSystem.GD_c4d0f1974c59f76f0c1d5bd83f7ccca94a21189401fb8012f49b8cd04ac90abe_3 phases=1 bus1=node_419254397.3.4 conn=wye kv=0.1270 pf=1 pmpp=2.67 kva=2.67 irradiance=1 temperature=25 %cutin=20 %cutout=20 effcurve=MyEff P-TCurve=MyPvsT Daily=IRRAD_DIA TDaily=TEMP_DIA
New PVSystem.GD_cc2709f0e06263c7de4c0696ba272fdc2c24011f737982b3ce68a53c7a2b374b_1 phases=1 bus1=node_419254397.1.4 conn=wye kv=0.1270 pf=1 pmpp=2.30 kva=2.30 irradiance=1 temperature=25 %cutin=20 %cutout=20 effcurve=MyEff P-TCurve=MyPvsT Daily=IRRAD_DIA TDaily=TEMP_DIA
New PVSystem.GD_cc2709f0e06263c7de4c0696ba272fdc2c24011f737982b3ce68a53c7a2b374b_2 phases=1 bus1=node_419254397.2.4 conn=wye kv=0.1270 pf=1 pmpp=2.30 kva=2.30 irradiance=1 temperature=25 %cutin=20 %cutout=20 effcurve=MyEff P-TCurve=MyPvsT Daily=IRRAD_DIA TDaily=TEMP_DIA
New PVSystem.GD_cc2709f0e06263c7de4c0696ba272fdc2c24011f737982b3ce68a53c7a2b374b_3 phases=1 bus1=node_419254397.3.4 conn=wye kv=0.1270 pf=1 pmpp=2.30 kva=2.30 irradiance=1 temperature=25 %cutin=20 %cutout=20 effcurve=MyEff P-TCurve=MyPvsT Daily=IRRAD_DIA TDaily=TEMP_DIA
New PVSystem.GD_02a7d4f9981907b0ced7a9654a6a5bb1fafc1875b59c73c033b441c449bda401_1 phases=1 bus1=node_419257307.1.4 conn=wye kv=0.1270 pf=1 pmpp=3.33 kva=3.33 irradiance=1 temperature=25 %cutin=20 %cutout=20 effcurve=MyEff P-TCurve=MyPvsT Daily=IRRAD_DIA TDaily=TEMP_DIA
New PVSystem.GD_02a7d4f9981907b0ced7a9654a6a5bb1fafc1875b59c73c033b441c449bda401_2 phases=1 bus1=node_419257307.2.4 conn=wye kv=0.1270 pf=1 pmpp=3.33 kva=3.33 irradiance=1 temperature=25 %cutin=20 %cutout=20 effcurve=MyEff P-TCurve=MyPvsT Daily=IRRAD_DIA TDaily=TEMP_DIA
New PVSystem.GD_02a7d4f9981907b0ced7a9654a6a5bb1fafc1875b59c73c033b441c449bda401_3 phases=1 bus1=node_419257307.3.4 conn=wye kv=0.1270 pf=1 pmpp=3.33 kva=3.33 irradiance=1 temperature=25 %cutin=20 %cutout=20 effcurve=MyEff P-TCurve=MyPvsT Daily=IRRAD_DIA TDaily=TEMP_DIA
New PVSystem.GD_193b5369ff4a066027f63618e85bb52bee72e21e5bc116ddb2bc5b550058da3e_1 phases=1 bus1=node_419256311.1.4 conn=wye kv=0.1270 pf=1 pmpp=1.31 kva=1.31 irradiance=1 temperature=25 %cutin=20 %cutout=20 effcurve=MyEff P-TCurve=MyPvsT Daily=IRRAD_DIA TDaily=TEMP_DIA
New PVSystem.GD_193b5369ff4a066027f63618e85bb52bee72e21e5bc116ddb2bc5b550058da3e_2 phases=1 bus1=node_419256311.2.4 conn=wye kv=0.1270 pf=1 pmpp=1.31 kva=1.31 irradiance=1 temperature=25 %cutin=20 %cutout=20 effcurve=MyEff P-TCurve=MyPvsT Daily=IRRAD_DIA TDaily=TEMP_DIA
New PVSystem.GD_193b5369ff4a066027f63618e85bb52bee72e21e5bc116ddb2bc5b550058da3e_3 phases=1 bus1=node_419256311.3.4 conn=wye kv=0.1270 pf=1 pmpp=1.31 kva=1.31 irradiance=1 temperature=25 %cutin=20 %cutout=20 effcurve=MyEff P-TCurve=MyPvsT Daily=IRRAD_DIA TDaily=TEMP_DIA
New PVSystem.GD_daf636717caf8742d1e6b2c575f40e63d00fe902ed1cf8464d2f13eadfb081d5_1 phases=1 bus1=node_419256311.1.4 conn=wye kv=0.1270 pf=1 pmpp=3.72 kva=3.72 irradiance=1 temperature=25 %cutin=20 %cutout=20 effcurve=MyEff P-TCurve=MyPvsT Daily=IRRAD_DIA TDaily=TEMP_DIA
New PVSystem.GD_daf636717caf8742d1e6b2c575f40e63d00fe902ed1cf8464d2f13eadfb081d5_2 phases=1 bus1=node_419256311.2.4 conn=wye kv=0.1270 pf=1 pmpp=3.72 kva=3.72 irradiance=1 temperature=25 %cutin=20 %cutout=20 effcurve=MyEff P-TCurve=MyPvsT Daily=IRRAD_DIA TDaily=TEMP_DIA
New PVSystem.GD_daf636717caf8742d1e6b2c575f40e63d00fe902ed1cf8464d2f13eadfb081d5_3 phases=1 bus1=node_419256311.3.4 conn=wye kv=0.1270 pf=1 pmpp=3.72 kva=3.72 irradiance=1 temperature=25 %cutin=20 %cutout=20 effcurve=MyEff P-TCurve=MyPvsT Daily=IRRAD_DIA TDaily=TEMP_DIA
New PVSystem.GD_ef79c3b53176b243bc46c13905d7b717ed47e52026a20a14cbddafdb9aa6795d_1 phases=1 bus1=node_419256311.1.4 conn=wye kv=0.1270 pf=1 pmpp=0.55 kva=0.55 irradiance=1 temperature=25 %cutin=20 %cutout=20 effcurve=MyEff P-TCurve=MyPvsT Daily=IRRAD_DIA TDaily=TEMP_DIA
New PVSystem.GD_ef79c3b53176b243bc46c13905d7b717ed47e52026a20a14cbddafdb9aa6795d_2 phases=1 bus1=node_419256311.2.4 conn=wye kv=0.1270 pf=1 pmpp=0.55 kva=0.55 irradiance=1 temperature=25 %cutin=20 %cutout=20 effcurve=MyEff P-TCurve=MyPvsT Daily=IRRAD_DIA TDaily=TEMP_DIA
New PVSystem.GD_ef79c3b53176b243bc46c13905d7b717ed47e52026a20a14cbddafdb9aa6795d_3 phases=1 bus1=node_419256311.3.4 conn=wye kv=0.1270 pf=1 pmpp=0.55 kva=0.55 irradiance=1 temperature=25 %cutin=20 %cutout=20 effcurve=MyEff P-TCurve=MyPvsT Daily=IRRAD_DIA TDaily=TEMP_DIA
New PVSystem.GD_9f8440c2be2545abd26bbe563bf79ee4b250af080f1c31c2e6a030528abd30cd_1 phases=1 bus1=node_419256311.1.4 conn=wye kv=0.1270 pf=1 pmpp=0.58 kva=0.58 irradiance=1 temperature=25 %cutin=20 %cutout=20 effcurve=MyEff P-TCurve=MyPvsT Daily=IRRAD_DIA TDaily=TEMP_DIA
New PVSystem.GD_9f8440c2be2545abd26bbe563bf79ee4b250af080f1c31c2e6a030528abd30cd_2 phases=1 bus1=node_419256311.2.4 conn=wye kv=0.1270 pf=1 pmpp=0.58 kva=0.58 irradiance=1 temperature=25 %cutin=20 %cutout=20 effcurve=MyEff P-TCurve=MyPvsT Daily=IRRAD_DIA TDaily=TEMP_DIA
New PVSystem.GD_9f8440c2be2545abd26bbe563bf79ee4b250af080f1c31c2e6a030528abd30cd_3 phases=1 bus1=node_419256311.3.4 conn=wye kv=0.1270 pf=1 pmpp=0.58 kva=0.58 irradiance=1 temperature=25 %cutin=20 %cutout=20 effcurve=MyEff P-TCurve=MyPvsT Daily=IRRAD_DIA TDaily=TEMP_DIA
New PVSystem.GD_da201599c07177cd989a3145e6fe93179050bcc79b3fdd4e07ac241e5a457854_1 phases=1 bus1=node_419256311.1.4 conn=wye kv=0.1270 pf=1 pmpp=0.36 kva=0.36 irradiance=1 temperature=25 %cutin=20 %cutout=20 effcurve=MyEff P-TCurve=MyPvsT Daily=IRRAD_DIA TDaily=TEMP_DIA
New PVSystem.GD_da201599c07177cd989a3145e6fe93179050bcc79b3fdd4e07ac241e5a457854_2 phases=1 bus1=node_419256311.2.4 conn=wye kv=0.1270 pf=1 pmpp=0.36 kva=0.36 irradiance=1 temperature=25 %cutin=20 %cutout=20 effcurve=MyEff P-TCurve=MyPvsT Daily=IRRAD_DIA TDaily=TEMP_DIA
New PVSystem.GD_da201599c07177cd989a3145e6fe93179050bcc79b3fdd4e07ac241e5a457854_3 phases=1 bus1=node_419256311.3.4 conn=wye kv=0.1270 pf=1 pmpp=0.36 kva=0.36 irradiance=1 temperature=25 %cutin=20 %cutout=20 effcurve=MyEff P-TCurve=MyPvsT Daily=IRRAD_DIA TDaily=TEMP_DIA
New PVSystem.GD_356e9829efc89a83e0b83ded2dc170cea9b6f475e4fd2f4b7e0aa98e5202bf1d_1 phases=1 bus1=node_419254730.1.4 conn=wye kv=0.1270 pf=1 pmpp=0.50 kva=0.50 irradiance=1 temperature=25 %cutin=20 %cutout=20 effcurve=MyEff P-TCurve=MyPvsT Daily=IRRAD_DIA TDaily=TEMP_DIA
New PVSystem.GD_356e9829efc89a83e0b83ded2dc170cea9b6f475e4fd2f4b7e0aa98e5202bf1d_2 phases=1 bus1=node_419254730.2.4 conn=wye kv=0.1270 pf=1 pmpp=0.50 kva=0.50 irradiance=1 temperature=25 %cutin=20 %cutout=20 effcurve=MyEff P-TCurve=MyPvsT Daily=IRRAD_DIA TDaily=TEMP_DIA
New PVSystem.GD_356e9829efc89a83e0b83ded2dc170cea9b6f475e4fd2f4b7e0aa98e5202bf1d_3 phases=1 bus1=node_419254730.3.4 conn=wye kv=0.1270 pf=1 pmpp=0.50 kva=0.50 irradiance=1 temperature=25 %cutin=20 %cutout=20 effcurve=MyEff P-TCurve=MyPvsT Daily=IRRAD_DIA TDaily=TEMP_DIA
New PVSystem.GD_d1f2fbbb6f0e5a2ee8091bd15d50373b5c762ef32bb31aebddd3661d05ed0fc6_1 phases=1 bus1=node_419254730.1.4 conn=wye kv=0.1270 pf=1 pmpp=2.12 kva=2.12 irradiance=1 temperature=25 %cutin=20 %cutout=20 effcurve=MyEff P-TCurve=MyPvsT Daily=IRRAD_DIA TDaily=TEMP_DIA
New PVSystem.GD_d1f2fbbb6f0e5a2ee8091bd15d50373b5c762ef32bb31aebddd3661d05ed0fc6_2 phases=1 bus1=node_419254730.2.4 conn=wye kv=0.1270 pf=1 pmpp=2.12 kva=2.12 irradiance=1 temperature=25 %cutin=20 %cutout=20 effcurve=MyEff P-TCurve=MyPvsT Daily=IRRAD_DIA TDaily=TEMP_DIA
New PVSystem.GD_d1f2fbbb6f0e5a2ee8091bd15d50373b5c762ef32bb31aebddd3661d05ed0fc6_3 phases=1 bus1=node_419254730.3.4 conn=wye kv=0.1270 pf=1 pmpp=2.12 kva=2.12 irradiance=1 temperature=25 %cutin=20 %cutout=20 effcurve=MyEff P-TCurve=MyPvsT Daily=IRRAD_DIA TDaily=TEMP_DIA
New PVSystem.GD_6de2164ad61d8c5246ca3e1530a2ee976fcdacbf68cd085726f541e3933ba731_1 phases=1 bus1=node_419254730.1.4 conn=wye kv=0.1270 pf=1 pmpp=0.12 kva=0.12 irradiance=1 temperature=25 %cutin=20 %cutout=20 effcurve=MyEff P-TCurve=MyPvsT Daily=IRRAD_DIA TDaily=TEMP_DIA
New PVSystem.GD_6de2164ad61d8c5246ca3e1530a2ee976fcdacbf68cd085726f541e3933ba731_2 phases=1 bus1=node_419254730.2.4 conn=wye kv=0.1270 pf=1 pmpp=0.12 kva=0.12 irradiance=1 temperature=25 %cutin=20 %cutout=20 effcurve=MyEff P-TCurve=MyPvsT Daily=IRRAD_DIA TDaily=TEMP_DIA
New PVSystem.GD_6de2164ad61d8c5246ca3e1530a2ee976fcdacbf68cd085726f541e3933ba731_3 phases=1 bus1=node_419254730.3.4 conn=wye kv=0.1270 pf=1 pmpp=0.12 kva=0.12 irradiance=1 temperature=25 %cutin=20 %cutout=20 effcurve=MyEff P-TCurve=MyPvsT Daily=IRRAD_DIA TDaily=TEMP_DIA
New PVSystem.GD_6aab567e4c2cb6fc4b201add595a3dcf0e83c67676460dd343d4da1dca73d72e_1 phases=1 bus1=node_419254730.1.4 conn=wye kv=0.1270 pf=1 pmpp=1.03 kva=1.03 irradiance=1 temperature=25 %cutin=20 %cutout=20 effcurve=MyEff P-TCurve=MyPvsT Daily=IRRAD_DIA TDaily=TEMP_DIA
New PVSystem.GD_6aab567e4c2cb6fc4b201add595a3dcf0e83c67676460dd343d4da1dca73d72e_2 phases=1 bus1=node_419254730.2.4 conn=wye kv=0.1270 pf=1 pmpp=1.03 kva=1.03 irradiance=1 temperature=25 %cutin=20 %cutout=20 effcurve=MyEff P-TCurve=MyPvsT Daily=IRRAD_DIA TDaily=TEMP_DIA
New PVSystem.GD_6aab567e4c2cb6fc4b201add595a3dcf0e83c67676460dd343d4da1dca73d72e_3 phases=1 bus1=node_419254730.3.4 conn=wye kv=0.1270 pf=1 pmpp=1.03 kva=1.03 irradiance=1 temperature=25 %cutin=20 %cutout=20 effcurve=MyEff P-TCurve=MyPvsT Daily=IRRAD_DIA TDaily=TEMP_DIA
New PVSystem.GD_dc2bed4e937b35f0dfb166b1a0151ac92987d8e53fe8fd00083f444b02b1a188_1 phases=1 bus1=node_419294332.1.4 conn=wye kv=0.1270 pf=1 pmpp=0.45 kva=0.45 irradiance=1 temperature=25 %cutin=20 %cutout=20 effcurve=MyEff P-TCurve=MyPvsT Daily=IRRAD_DIA TDaily=TEMP_DIA
New PVSystem.GD_dc2bed4e937b35f0dfb166b1a0151ac92987d8e53fe8fd00083f444b02b1a188_2 phases=1 bus1=node_419294332.2.4 conn=wye kv=0.1270 pf=1 pmpp=0.45 kva=0.45 irradiance=1 temperature=25 %cutin=20 %cutout=20 effcurve=MyEff P-TCurve=MyPvsT Daily=IRRAD_DIA TDaily=TEMP_DIA
New PVSystem.GD_dc2bed4e937b35f0dfb166b1a0151ac92987d8e53fe8fd00083f444b02b1a188_3 phases=1 bus1=node_419294332.3.4 conn=wye kv=0.1270 pf=1 pmpp=0.45 kva=0.45 irradiance=1 temperature=25 %cutin=20 %cutout=20 effcurve=MyEff P-TCurve=MyPvsT Daily=IRRAD_DIA TDaily=TEMP_DIA
New PVSystem.GD_ef90558706a3d877aeb45ec1e782174a8b7f6639a1b195476bc1dadfbfe8eaa4_1 phases=1 bus1=node_419256374.1.4 conn=wye kv=0.1270 pf=1 pmpp=1.39 kva=1.39 irradiance=1 temperature=25 %cutin=20 %cutout=20 effcurve=MyEff P-TCurve=MyPvsT Daily=IRRAD_DIA TDaily=TEMP_DIA
New PVSystem.GD_ef90558706a3d877aeb45ec1e782174a8b7f6639a1b195476bc1dadfbfe8eaa4_2 phases=1 bus1=node_419256374.2.4 conn=wye kv=0.1270 pf=1 pmpp=1.39 kva=1.39 irradiance=1 temperature=25 %cutin=20 %cutout=20 effcurve=MyEff P-TCurve=MyPvsT Daily=IRRAD_DIA TDaily=TEMP_DIA
New PVSystem.GD_ef90558706a3d877aeb45ec1e782174a8b7f6639a1b195476bc1dadfbfe8eaa4_3 phases=1 bus1=node_419256374.3.4 conn=wye kv=0.1270 pf=1 pmpp=1.39 kva=1.39 irradiance=1 temperature=25 %cutin=20 %cutout=20 effcurve=MyEff P-TCurve=MyPvsT Daily=IRRAD_DIA TDaily=TEMP_DIA
New PVSystem.GD_d1935d81ac243990d25615e8af134a0e7469b17d32b477f8203ddb7480b9ca53_1 phases=1 bus1=node_419256374.1.4 conn=wye kv=0.1270 pf=1 pmpp=1.12 kva=1.12 irradiance=1 temperature=25 %cutin=20 %cutout=20 effcurve=MyEff P-TCurve=MyPvsT Daily=IRRAD_DIA TDaily=TEMP_DIA
New PVSystem.GD_d1935d81ac243990d25615e8af134a0e7469b17d32b477f8203ddb7480b9ca53_2 phases=1 bus1=node_419256374.2.4 conn=wye kv=0.1270 pf=1 pmpp=1.12 kva=1.12 irradiance=1 temperature=25 %cutin=20 %cutout=20 effcurve=MyEff P-TCurve=MyPvsT Daily=IRRAD_DIA TDaily=TEMP_DIA
New PVSystem.GD_d1935d81ac243990d25615e8af134a0e7469b17d32b477f8203ddb7480b9ca53_3 phases=1 bus1=node_419256374.3.4 conn=wye kv=0.1270 pf=1 pmpp=1.12 kva=1.12 irradiance=1 temperature=25 %cutin=20 %cutout=20 effcurve=MyEff P-TCurve=MyPvsT Daily=IRRAD_DIA TDaily=TEMP_DIA
New PVSystem.GD_de70205a89b80e3027e551eb7cd40ac0cb67646593f08d7ba8dd406b10d8aa4c_1 phases=1 bus1=node_419292256.1.4 conn=wye kv=0.1200 pf=1 pmpp=1.90 kva=1.90 irradiance=1 temperature=25 %cutin=20 %cutout=20 effcurve=MyEff P-TCurve=MyPvsT Daily=IRRAD_DIA TDaily=TEMP_DIA
New PVSystem.GD_de70205a89b80e3027e551eb7cd40ac0cb67646593f08d7ba8dd406b10d8aa4c_2 phases=1 bus1=node_419292256.2.4 conn=wye kv=0.1200 pf=1 pmpp=1.90 kva=1.90 irradiance=1 temperature=25 %cutin=20 %cutout=20 effcurve=MyEff P-TCurve=MyPvsT Daily=IRRAD_DIA TDaily=TEMP_DIA
New PVSystem.GD_d8b982dba286c57b650bb3bffde5444f3ada422e631c8d7cb116b21d4ea4b845_1 phases=1 bus1=node_461821232.1.4 conn=wye kv=0.1270 pf=1 pmpp=0.71 kva=0.71 irradiance=1 temperature=25 %cutin=20 %cutout=20 effcurve=MyEff P-TCurve=MyPvsT Daily=IRRAD_DIA TDaily=TEMP_DIA
New PVSystem.GD_d8b982dba286c57b650bb3bffde5444f3ada422e631c8d7cb116b21d4ea4b845_2 phases=1 bus1=node_461821232.2.4 conn=wye kv=0.1270 pf=1 pmpp=0.71 kva=0.71 irradiance=1 temperature=25 %cutin=20 %cutout=20 effcurve=MyEff P-TCurve=MyPvsT Daily=IRRAD_DIA TDaily=TEMP_DIA
New PVSystem.GD_d8b982dba286c57b650bb3bffde5444f3ada422e631c8d7cb116b21d4ea4b845_3 phases=1 bus1=node_461821232.3.4 conn=wye kv=0.1270 pf=1 pmpp=0.71 kva=0.71 irradiance=1 temperature=25 %cutin=20 %cutout=20 effcurve=MyEff P-TCurve=MyPvsT Daily=IRRAD_DIA TDaily=TEMP_DIA
New PVSystem.GD_9b68a7cd8b266d2c442a04557ae2dc0e108d35b2ece19cea1a8d06d362d20a5e_1 phases=1 bus1=node_461821232.1.4 conn=wye kv=0.1270 pf=1 pmpp=0.49 kva=0.49 irradiance=1 temperature=25 %cutin=20 %cutout=20 effcurve=MyEff P-TCurve=MyPvsT Daily=IRRAD_DIA TDaily=TEMP_DIA
New PVSystem.GD_9b68a7cd8b266d2c442a04557ae2dc0e108d35b2ece19cea1a8d06d362d20a5e_2 phases=1 bus1=node_461821232.2.4 conn=wye kv=0.1270 pf=1 pmpp=0.49 kva=0.49 irradiance=1 temperature=25 %cutin=20 %cutout=20 effcurve=MyEff P-TCurve=MyPvsT Daily=IRRAD_DIA TDaily=TEMP_DIA
New PVSystem.GD_9b68a7cd8b266d2c442a04557ae2dc0e108d35b2ece19cea1a8d06d362d20a5e_3 phases=1 bus1=node_461821232.3.4 conn=wye kv=0.1270 pf=1 pmpp=0.49 kva=0.49 irradiance=1 temperature=25 %cutin=20 %cutout=20 effcurve=MyEff P-TCurve=MyPvsT Daily=IRRAD_DIA TDaily=TEMP_DIA
New PVSystem.GD_58813a045183a90e104ffddfb00e444586e121d676fbde49e170bf70f9c59208_1 phases=1 bus1=node_419294167.1.4 conn=wye kv=0.1270 pf=1 pmpp=0.32 kva=0.32 irradiance=1 temperature=25 %cutin=20 %cutout=20 effcurve=MyEff P-TCurve=MyPvsT Daily=IRRAD_DIA TDaily=TEMP_DIA
New PVSystem.GD_58813a045183a90e104ffddfb00e444586e121d676fbde49e170bf70f9c59208_2 phases=1 bus1=node_419294167.2.4 conn=wye kv=0.1270 pf=1 pmpp=0.32 kva=0.32 irradiance=1 temperature=25 %cutin=20 %cutout=20 effcurve=MyEff P-TCurve=MyPvsT Daily=IRRAD_DIA TDaily=TEMP_DIA
New PVSystem.GD_58813a045183a90e104ffddfb00e444586e121d676fbde49e170bf70f9c59208_3 phases=1 bus1=node_419294167.3.4 conn=wye kv=0.1270 pf=1 pmpp=0.32 kva=0.32 irradiance=1 temperature=25 %cutin=20 %cutout=20 effcurve=MyEff P-TCurve=MyPvsT Daily=IRRAD_DIA TDaily=TEMP_DIA
New PVSystem.GD_bb6278e42019e03ba3eb4b3030f454d552e4f3e2e5b34b6cde36a05e5b07ec8c_1 phases=1 bus1=node_419294167.1.4 conn=wye kv=0.1270 pf=1 pmpp=0.80 kva=0.80 irradiance=1 temperature=25 %cutin=20 %cutout=20 effcurve=MyEff P-TCurve=MyPvsT Daily=IRRAD_DIA TDaily=TEMP_DIA
New PVSystem.GD_bb6278e42019e03ba3eb4b3030f454d552e4f3e2e5b34b6cde36a05e5b07ec8c_2 phases=1 bus1=node_419294167.2.4 conn=wye kv=0.1270 pf=1 pmpp=0.80 kva=0.80 irradiance=1 temperature=25 %cutin=20 %cutout=20 effcurve=MyEff P-TCurve=MyPvsT Daily=IRRAD_DIA TDaily=TEMP_DIA
New PVSystem.GD_bb6278e42019e03ba3eb4b3030f454d552e4f3e2e5b34b6cde36a05e5b07ec8c_3 phases=1 bus1=node_419294167.3.4 conn=wye kv=0.1270 pf=1 pmpp=0.80 kva=0.80 irradiance=1 temperature=25 %cutin=20 %cutout=20 effcurve=MyEff P-TCurve=MyPvsT Daily=IRRAD_DIA TDaily=TEMP_DIA
New PVSystem.GD_b68a2f3d426fee1836e28cdf59cc0e0c06b03f5dfc2c3dce3939c083536bdbc1_1 phases=1 bus1=node_419294167.1.4 conn=wye kv=0.1270 pf=1 pmpp=1.97 kva=1.97 irradiance=1 temperature=25 %cutin=20 %cutout=20 effcurve=MyEff P-TCurve=MyPvsT Daily=IRRAD_DIA TDaily=TEMP_DIA
New PVSystem.GD_b68a2f3d426fee1836e28cdf59cc0e0c06b03f5dfc2c3dce3939c083536bdbc1_2 phases=1 bus1=node_419294167.2.4 conn=wye kv=0.1270 pf=1 pmpp=1.97 kva=1.97 irradiance=1 temperature=25 %cutin=20 %cutout=20 effcurve=MyEff P-TCurve=MyPvsT Daily=IRRAD_DIA TDaily=TEMP_DIA
New PVSystem.GD_b68a2f3d426fee1836e28cdf59cc0e0c06b03f5dfc2c3dce3939c083536bdbc1_3 phases=1 bus1=node_419294167.3.4 conn=wye kv=0.1270 pf=1 pmpp=1.97 kva=1.97 irradiance=1 temperature=25 %cutin=20 %cutout=20 effcurve=MyEff P-TCurve=MyPvsT Daily=IRRAD_DIA TDaily=TEMP_DIA
New PVSystem.GD_055949864f3688eed89f65e707c1b253842ae899d2b544e3984037f845a6b077_1 phases=1 bus1=node_419294167.1.4 conn=wye kv=0.1270 pf=1 pmpp=1.06 kva=1.06 irradiance=1 temperature=25 %cutin=20 %cutout=20 effcurve=MyEff P-TCurve=MyPvsT Daily=IRRAD_DIA TDaily=TEMP_DIA
New PVSystem.GD_055949864f3688eed89f65e707c1b253842ae899d2b544e3984037f845a6b077_2 phases=1 bus1=node_419294167.2.4 conn=wye kv=0.1270 pf=1 pmpp=1.06 kva=1.06 irradiance=1 temperature=25 %cutin=20 %cutout=20 effcurve=MyEff P-TCurve=MyPvsT Daily=IRRAD_DIA TDaily=TEMP_DIA
New PVSystem.GD_055949864f3688eed89f65e707c1b253842ae899d2b544e3984037f845a6b077_3 phases=1 bus1=node_419294167.3.4 conn=wye kv=0.1270 pf=1 pmpp=1.06 kva=1.06 irradiance=1 temperature=25 %cutin=20 %cutout=20 effcurve=MyEff P-TCurve=MyPvsT Daily=IRRAD_DIA TDaily=TEMP_DIA
New PVSystem.GD_c2c28b29e879a5a6cfb83fd5b12d51a6c55e41930b7ace885da14c3092986109_1 phases=1 bus1=node_419292298.1.4 conn=wye kv=0.1270 pf=1 pmpp=4.03 kva=4.03 irradiance=1 temperature=25 %cutin=20 %cutout=20 effcurve=MyEff P-TCurve=MyPvsT Daily=IRRAD_DIA TDaily=TEMP_DIA
New PVSystem.GD_c2c28b29e879a5a6cfb83fd5b12d51a6c55e41930b7ace885da14c3092986109_2 phases=1 bus1=node_419292298.2.4 conn=wye kv=0.1270 pf=1 pmpp=4.03 kva=4.03 irradiance=1 temperature=25 %cutin=20 %cutout=20 effcurve=MyEff P-TCurve=MyPvsT Daily=IRRAD_DIA TDaily=TEMP_DIA
New PVSystem.GD_c2c28b29e879a5a6cfb83fd5b12d51a6c55e41930b7ace885da14c3092986109_3 phases=1 bus1=node_419292298.3.4 conn=wye kv=0.1270 pf=1 pmpp=4.03 kva=4.03 irradiance=1 temperature=25 %cutin=20 %cutout=20 effcurve=MyEff P-TCurve=MyPvsT Daily=IRRAD_DIA TDaily=TEMP_DIA
New PVSystem.GD_6d60ef0ddef6cde6c9c05751b869af73b94195800232ac59134b4998fe91cac2_1 phases=1 bus1=node_419292298.1.4 conn=wye kv=0.1270 pf=1 pmpp=0.76 kva=0.76 irradiance=1 temperature=25 %cutin=20 %cutout=20 effcurve=MyEff P-TCurve=MyPvsT Daily=IRRAD_DIA TDaily=TEMP_DIA
New PVSystem.GD_6d60ef0ddef6cde6c9c05751b869af73b94195800232ac59134b4998fe91cac2_2 phases=1 bus1=node_419292298.2.4 conn=wye kv=0.1270 pf=1 pmpp=0.76 kva=0.76 irradiance=1 temperature=25 %cutin=20 %cutout=20 effcurve=MyEff P-TCurve=MyPvsT Daily=IRRAD_DIA TDaily=TEMP_DIA
New PVSystem.GD_6d60ef0ddef6cde6c9c05751b869af73b94195800232ac59134b4998fe91cac2_3 phases=1 bus1=node_419292298.3.4 conn=wye kv=0.1270 pf=1 pmpp=0.76 kva=0.76 irradiance=1 temperature=25 %cutin=20 %cutout=20 effcurve=MyEff P-TCurve=MyPvsT Daily=IRRAD_DIA TDaily=TEMP_DIA
New PVSystem.GD_19f4a24e64a3d6c7f1c6dc8fb22a4f2b72d54f6a1bf65f0666b0a3d69b1be3b9_1 phases=1 bus1=node_419292298.1.4 conn=wye kv=0.1270 pf=1 pmpp=0.11 kva=0.11 irradiance=1 temperature=25 %cutin=20 %cutout=20 effcurve=MyEff P-TCurve=MyPvsT Daily=IRRAD_DIA TDaily=TEMP_DIA
New PVSystem.GD_19f4a24e64a3d6c7f1c6dc8fb22a4f2b72d54f6a1bf65f0666b0a3d69b1be3b9_2 phases=1 bus1=node_419292298.2.4 conn=wye kv=0.1270 pf=1 pmpp=0.11 kva=0.11 irradiance=1 temperature=25 %cutin=20 %cutout=20 effcurve=MyEff P-TCurve=MyPvsT Daily=IRRAD_DIA TDaily=TEMP_DIA
New PVSystem.GD_19f4a24e64a3d6c7f1c6dc8fb22a4f2b72d54f6a1bf65f0666b0a3d69b1be3b9_3 phases=1 bus1=node_419292298.3.4 conn=wye kv=0.1270 pf=1 pmpp=0.11 kva=0.11 irradiance=1 temperature=25 %cutin=20 %cutout=20 effcurve=MyEff P-TCurve=MyPvsT Daily=IRRAD_DIA TDaily=TEMP_DIA
New PVSystem.GD_4a4fd0c3cd2c2c554e60b85099a007c429e51c26e78c2f31ea83e76cd1c6ad3e_1 phases=1 bus1=node_419292298.1.4 conn=wye kv=0.1270 pf=1 pmpp=1.10 kva=1.10 irradiance=1 temperature=25 %cutin=20 %cutout=20 effcurve=MyEff P-TCurve=MyPvsT Daily=IRRAD_DIA TDaily=TEMP_DIA
New PVSystem.GD_4a4fd0c3cd2c2c554e60b85099a007c429e51c26e78c2f31ea83e76cd1c6ad3e_2 phases=1 bus1=node_419292298.2.4 conn=wye kv=0.1270 pf=1 pmpp=1.10 kva=1.10 irradiance=1 temperature=25 %cutin=20 %cutout=20 effcurve=MyEff P-TCurve=MyPvsT Daily=IRRAD_DIA TDaily=TEMP_DIA
New PVSystem.GD_4a4fd0c3cd2c2c554e60b85099a007c429e51c26e78c2f31ea83e76cd1c6ad3e_3 phases=1 bus1=node_419292298.3.4 conn=wye kv=0.1270 pf=1 pmpp=1.10 kva=1.10 irradiance=1 temperature=25 %cutin=20 %cutout=20 effcurve=MyEff P-TCurve=MyPvsT Daily=IRRAD_DIA TDaily=TEMP_DIA
New PVSystem.GD_84c49c183a6538bb3b1b34f3231f9418c2d331ab15690b744d046f57ddcbeee8_1 phases=1 bus1=node_419255153.1.4 conn=wye kv=0.1270 pf=1 pmpp=0.40 kva=0.40 irradiance=1 temperature=25 %cutin=20 %cutout=20 effcurve=MyEff P-TCurve=MyPvsT Daily=IRRAD_DIA TDaily=TEMP_DIA
New PVSystem.GD_84c49c183a6538bb3b1b34f3231f9418c2d331ab15690b744d046f57ddcbeee8_2 phases=1 bus1=node_419255153.2.4 conn=wye kv=0.1270 pf=1 pmpp=0.40 kva=0.40 irradiance=1 temperature=25 %cutin=20 %cutout=20 effcurve=MyEff P-TCurve=MyPvsT Daily=IRRAD_DIA TDaily=TEMP_DIA
New PVSystem.GD_84c49c183a6538bb3b1b34f3231f9418c2d331ab15690b744d046f57ddcbeee8_3 phases=1 bus1=node_419255153.3.4 conn=wye kv=0.1270 pf=1 pmpp=0.40 kva=0.40 irradiance=1 temperature=25 %cutin=20 %cutout=20 effcurve=MyEff P-TCurve=MyPvsT Daily=IRRAD_DIA TDaily=TEMP_DIA
New PVSystem.GD_f8cc18b82301676da075aedde1175c5cb054563acae6d46a1dd412b96d13d532_1 phases=1 bus1=node_419255153.1.4 conn=wye kv=0.1270 pf=1 pmpp=1.97 kva=1.97 irradiance=1 temperature=25 %cutin=20 %cutout=20 effcurve=MyEff P-TCurve=MyPvsT Daily=IRRAD_DIA TDaily=TEMP_DIA
New PVSystem.GD_f8cc18b82301676da075aedde1175c5cb054563acae6d46a1dd412b96d13d532_2 phases=1 bus1=node_419255153.2.4 conn=wye kv=0.1270 pf=1 pmpp=1.97 kva=1.97 irradiance=1 temperature=25 %cutin=20 %cutout=20 effcurve=MyEff P-TCurve=MyPvsT Daily=IRRAD_DIA TDaily=TEMP_DIA
New PVSystem.GD_f8cc18b82301676da075aedde1175c5cb054563acae6d46a1dd412b96d13d532_3 phases=1 bus1=node_419255153.3.4 conn=wye kv=0.1270 pf=1 pmpp=1.97 kva=1.97 irradiance=1 temperature=25 %cutin=20 %cutout=20 effcurve=MyEff P-TCurve=MyPvsT Daily=IRRAD_DIA TDaily=TEMP_DIA
New PVSystem.GD_fe065cfd477a9c0f8ba3fe333136d2045ab41db748690af49db4cf7079325a07_1 phases=1 bus1=node_419427526.1.4 conn=wye kv=0.1270 pf=1 pmpp=0.44 kva=0.44 irradiance=1 temperature=25 %cutin=20 %cutout=20 effcurve=MyEff P-TCurve=MyPvsT Daily=IRRAD_DIA TDaily=TEMP_DIA
New PVSystem.GD_fe065cfd477a9c0f8ba3fe333136d2045ab41db748690af49db4cf7079325a07_2 phases=1 bus1=node_419427526.2.4 conn=wye kv=0.1270 pf=1 pmpp=0.44 kva=0.44 irradiance=1 temperature=25 %cutin=20 %cutout=20 effcurve=MyEff P-TCurve=MyPvsT Daily=IRRAD_DIA TDaily=TEMP_DIA
New PVSystem.GD_fe065cfd477a9c0f8ba3fe333136d2045ab41db748690af49db4cf7079325a07_3 phases=1 bus1=node_419427526.3.4 conn=wye kv=0.1270 pf=1 pmpp=0.44 kva=0.44 irradiance=1 temperature=25 %cutin=20 %cutout=20 effcurve=MyEff P-TCurve=MyPvsT Daily=IRRAD_DIA TDaily=TEMP_DIA
New PVSystem.GD_6d01f25445b42401417a2341af298efd809399342bbb92e36f2d84447b55d75a_1 phases=1 bus1=node_419427526.1.4 conn=wye kv=0.1270 pf=1 pmpp=0.65 kva=0.65 irradiance=1 temperature=25 %cutin=20 %cutout=20 effcurve=MyEff P-TCurve=MyPvsT Daily=IRRAD_DIA TDaily=TEMP_DIA
New PVSystem.GD_6d01f25445b42401417a2341af298efd809399342bbb92e36f2d84447b55d75a_2 phases=1 bus1=node_419427526.2.4 conn=wye kv=0.1270 pf=1 pmpp=0.65 kva=0.65 irradiance=1 temperature=25 %cutin=20 %cutout=20 effcurve=MyEff P-TCurve=MyPvsT Daily=IRRAD_DIA TDaily=TEMP_DIA
New PVSystem.GD_6d01f25445b42401417a2341af298efd809399342bbb92e36f2d84447b55d75a_3 phases=1 bus1=node_419427526.3.4 conn=wye kv=0.1270 pf=1 pmpp=0.65 kva=0.65 irradiance=1 temperature=25 %cutin=20 %cutout=20 effcurve=MyEff P-TCurve=MyPvsT Daily=IRRAD_DIA TDaily=TEMP_DIA
New PVSystem.GD_15f7824efb8920e616a6fbfb60bda222593ecf6c24ba3d8cb295957936a24b28_1 phases=1 bus1=node_419256338.1.4 conn=wye kv=0.1200 pf=1 pmpp=2.08 kva=2.08 irradiance=1 temperature=25 %cutin=20 %cutout=20 effcurve=MyEff P-TCurve=MyPvsT Daily=IRRAD_DIA TDaily=TEMP_DIA
New PVSystem.GD_15f7824efb8920e616a6fbfb60bda222593ecf6c24ba3d8cb295957936a24b28_2 phases=1 bus1=node_419256338.2.4 conn=wye kv=0.1200 pf=1 pmpp=2.08 kva=2.08 irradiance=1 temperature=25 %cutin=20 %cutout=20 effcurve=MyEff P-TCurve=MyPvsT Daily=IRRAD_DIA TDaily=TEMP_DIA
New PVSystem.GD_46fd6c5af44aceb2957eb934562bdbb9eedcd5be5eba8cd5160d38fb31b1f108_1 phases=1 bus1=node_419295502.1.4 conn=wye kv=0.1200 pf=1 pmpp=6.01 kva=6.01 irradiance=1 temperature=25 %cutin=20 %cutout=20 effcurve=MyEff P-TCurve=MyPvsT Daily=IRRAD_DIA TDaily=TEMP_DIA
New PVSystem.GD_46fd6c5af44aceb2957eb934562bdbb9eedcd5be5eba8cd5160d38fb31b1f108_2 phases=1 bus1=node_419295502.2.4 conn=wye kv=0.1200 pf=1 pmpp=6.01 kva=6.01 irradiance=1 temperature=25 %cutin=20 %cutout=20 effcurve=MyEff P-TCurve=MyPvsT Daily=IRRAD_DIA TDaily=TEMP_DIA
New PVSystem.GD_5410f548d1c7872aafe8624e8d2c6f6bdb368ac5cd4874a594b6eb13e29c331e_1 phases=1 bus1=node_419637110.1.4 conn=wye kv=0.1200 pf=1 pmpp=1.87 kva=1.87 irradiance=1 temperature=25 %cutin=20 %cutout=20 effcurve=MyEff P-TCurve=MyPvsT Daily=IRRAD_DIA TDaily=TEMP_DIA
New PVSystem.GD_5410f548d1c7872aafe8624e8d2c6f6bdb368ac5cd4874a594b6eb13e29c331e_2 phases=1 bus1=node_419637110.2.4 conn=wye kv=0.1200 pf=1 pmpp=1.87 kva=1.87 irradiance=1 temperature=25 %cutin=20 %cutout=20 effcurve=MyEff P-TCurve=MyPvsT Daily=IRRAD_DIA TDaily=TEMP_DIA
New PVSystem.GD_18cc73302f5421511867524ab270882bad6136f14e1b8ef5b5efcaf89dc6b1d4_1 phases=1 bus1=node_419213429.1.4 conn=wye kv=0.1200 pf=1 pmpp=8.86 kva=8.86 irradiance=1 temperature=25 %cutin=20 %cutout=20 effcurve=MyEff P-TCurve=MyPvsT Daily=IRRAD_DIA TDaily=TEMP_DIA
New PVSystem.GD_18cc73302f5421511867524ab270882bad6136f14e1b8ef5b5efcaf89dc6b1d4_2 phases=1 bus1=node_419213429.2.4 conn=wye kv=0.1200 pf=1 pmpp=8.86 kva=8.86 irradiance=1 temperature=25 %cutin=20 %cutout=20 effcurve=MyEff P-TCurve=MyPvsT Daily=IRRAD_DIA TDaily=TEMP_DIA
New PVSystem.GD_b45abd7524d5774aa26e1c5f25958f9fe545e7a40c16da052ac57967d21a8897_1 phases=1 bus1=node_419254175.1.4 conn=wye kv=0.1200 pf=1 pmpp=2.08 kva=2.08 irradiance=1 temperature=25 %cutin=20 %cutout=20 effcurve=MyEff P-TCurve=MyPvsT Daily=IRRAD_DIA TDaily=TEMP_DIA
New PVSystem.GD_b45abd7524d5774aa26e1c5f25958f9fe545e7a40c16da052ac57967d21a8897_2 phases=1 bus1=node_419254175.2.4 conn=wye kv=0.1200 pf=1 pmpp=2.08 kva=2.08 irradiance=1 temperature=25 %cutin=20 %cutout=20 effcurve=MyEff P-TCurve=MyPvsT Daily=IRRAD_DIA TDaily=TEMP_DIA
New PVSystem.GD_74c98e4b90d073d6840c23456940aff95d1beac380fdeedf5859698e51b1fbc3_1 phases=1 bus1=node_419295499.1.4 conn=wye kv=0.1200 pf=1 pmpp=4.09 kva=4.09 irradiance=1 temperature=25 %cutin=20 %cutout=20 effcurve=MyEff P-TCurve=MyPvsT Daily=IRRAD_DIA TDaily=TEMP_DIA
New PVSystem.GD_74c98e4b90d073d6840c23456940aff95d1beac380fdeedf5859698e51b1fbc3_2 phases=1 bus1=node_419295499.2.4 conn=wye kv=0.1200 pf=1 pmpp=4.09 kva=4.09 irradiance=1 temperature=25 %cutin=20 %cutout=20 effcurve=MyEff P-TCurve=MyPvsT Daily=IRRAD_DIA TDaily=TEMP_DIA
New PVSystem.GD_dded96ce7f359b96d0d67ac5b2f4506e83d4a15739afb233db91edccdfd999dc_1 phases=1 bus1=node_419498155.1.4 conn=wye kv=0.1270 pf=1 pmpp=0.77 kva=0.77 irradiance=1 temperature=25 %cutin=20 %cutout=20 effcurve=MyEff P-TCurve=MyPvsT Daily=IRRAD_DIA TDaily=TEMP_DIA
New PVSystem.GD_dded96ce7f359b96d0d67ac5b2f4506e83d4a15739afb233db91edccdfd999dc_2 phases=1 bus1=node_419498155.2.4 conn=wye kv=0.1270 pf=1 pmpp=0.77 kva=0.77 irradiance=1 temperature=25 %cutin=20 %cutout=20 effcurve=MyEff P-TCurve=MyPvsT Daily=IRRAD_DIA TDaily=TEMP_DIA
New PVSystem.GD_dded96ce7f359b96d0d67ac5b2f4506e83d4a15739afb233db91edccdfd999dc_3 phases=1 bus1=node_419498155.3.4 conn=wye kv=0.1270 pf=1 pmpp=0.77 kva=0.77 irradiance=1 temperature=25 %cutin=20 %cutout=20 effcurve=MyEff P-TCurve=MyPvsT Daily=IRRAD_DIA TDaily=TEMP_DIA
New PVSystem.GD_b4e6545f2883baee96a83e62c0e378d98ba183b9ff8f47b08d916530f14674b1_1 phases=1 bus1=node_419498155.1.4 conn=wye kv=0.1270 pf=1 pmpp=1.28 kva=1.28 irradiance=1 temperature=25 %cutin=20 %cutout=20 effcurve=MyEff P-TCurve=MyPvsT Daily=IRRAD_DIA TDaily=TEMP_DIA
New PVSystem.GD_b4e6545f2883baee96a83e62c0e378d98ba183b9ff8f47b08d916530f14674b1_2 phases=1 bus1=node_419498155.2.4 conn=wye kv=0.1270 pf=1 pmpp=1.28 kva=1.28 irradiance=1 temperature=25 %cutin=20 %cutout=20 effcurve=MyEff P-TCurve=MyPvsT Daily=IRRAD_DIA TDaily=TEMP_DIA
New PVSystem.GD_b4e6545f2883baee96a83e62c0e378d98ba183b9ff8f47b08d916530f14674b1_3 phases=1 bus1=node_419498155.3.4 conn=wye kv=0.1270 pf=1 pmpp=1.28 kva=1.28 irradiance=1 temperature=25 %cutin=20 %cutout=20 effcurve=MyEff P-TCurve=MyPvsT Daily=IRRAD_DIA TDaily=TEMP_DIA
New PVSystem.GD_d30aa4097e694b88222403cce3d4a0ac8df98eb733e2fe14a274f539d66bb96a_1 phases=1 bus1=node_418151803.1.4 conn=wye kv=0.1200 pf=1 pmpp=7.88 kva=7.88 irradiance=1 temperature=25 %cutin=20 %cutout=20 effcurve=MyEff P-TCurve=MyPvsT Daily=IRRAD_DIA TDaily=TEMP_DIA
New PVSystem.GD_d30aa4097e694b88222403cce3d4a0ac8df98eb733e2fe14a274f539d66bb96a_2 phases=1 bus1=node_418151803.2.4 conn=wye kv=0.1200 pf=1 pmpp=7.88 kva=7.88 irradiance=1 temperature=25 %cutin=20 %cutout=20 effcurve=MyEff P-TCurve=MyPvsT Daily=IRRAD_DIA TDaily=TEMP_DIA
New PVSystem.GD_bb43ad699563e838542b8214573232458760863405e791ba45108bd19ea3aeab_1 phases=1 bus1=node_419213876.1.4 conn=wye kv=0.1200 pf=1 pmpp=2.28 kva=2.28 irradiance=1 temperature=25 %cutin=20 %cutout=20 effcurve=MyEff P-TCurve=MyPvsT Daily=IRRAD_DIA TDaily=TEMP_DIA
New PVSystem.GD_bb43ad699563e838542b8214573232458760863405e791ba45108bd19ea3aeab_2 phases=1 bus1=node_419213876.2.4 conn=wye kv=0.1200 pf=1 pmpp=2.28 kva=2.28 irradiance=1 temperature=25 %cutin=20 %cutout=20 effcurve=MyEff P-TCurve=MyPvsT Daily=IRRAD_DIA TDaily=TEMP_DIA
New PVSystem.GD_a76ef5700b428333ae8dd11815fd7b67db71fd1f1eb2f7da572505bc9093eff3_1 phases=1 bus1=node_419327036.1.4 conn=wye kv=0.1200 pf=1 pmpp=3.01 kva=3.01 irradiance=1 temperature=25 %cutin=20 %cutout=20 effcurve=MyEff P-TCurve=MyPvsT Daily=IRRAD_DIA TDaily=TEMP_DIA
New PVSystem.GD_a76ef5700b428333ae8dd11815fd7b67db71fd1f1eb2f7da572505bc9093eff3_2 phases=1 bus1=node_419327036.2.4 conn=wye kv=0.1200 pf=1 pmpp=3.01 kva=3.01 irradiance=1 temperature=25 %cutin=20 %cutout=20 effcurve=MyEff P-TCurve=MyPvsT Daily=IRRAD_DIA TDaily=TEMP_DIA
New PVSystem.GD_be1cf6fd0a28e91b419ac5e70bb5c61953e50a5349a16d05e315677dfae85195_1 phases=1 bus1=node_419295643.1.4 conn=wye kv=0.1200 pf=1 pmpp=1.36 kva=1.36 irradiance=1 temperature=25 %cutin=20 %cutout=20 effcurve=MyEff P-TCurve=MyPvsT Daily=IRRAD_DIA TDaily=TEMP_DIA
New PVSystem.GD_be1cf6fd0a28e91b419ac5e70bb5c61953e50a5349a16d05e315677dfae85195_2 phases=1 bus1=node_419295643.2.4 conn=wye kv=0.1200 pf=1 pmpp=1.36 kva=1.36 irradiance=1 temperature=25 %cutin=20 %cutout=20 effcurve=MyEff P-TCurve=MyPvsT Daily=IRRAD_DIA TDaily=TEMP_DIA
New PVSystem.GD_7fdf53422f7a3c0c5673cc3134e0081757f1e23aeb5ada7e95e5fd5f39a1ae71_1 phases=1 bus1=node_419214056.1.4 conn=wye kv=0.1200 pf=1 pmpp=1.48 kva=1.48 irradiance=1 temperature=25 %cutin=20 %cutout=20 effcurve=MyEff P-TCurve=MyPvsT Daily=IRRAD_DIA TDaily=TEMP_DIA
New PVSystem.GD_7fdf53422f7a3c0c5673cc3134e0081757f1e23aeb5ada7e95e5fd5f39a1ae71_2 phases=1 bus1=node_419214056.2.4 conn=wye kv=0.1200 pf=1 pmpp=1.48 kva=1.48 irradiance=1 temperature=25 %cutin=20 %cutout=20 effcurve=MyEff P-TCurve=MyPvsT Daily=IRRAD_DIA TDaily=TEMP_DIA
New PVSystem.GD_4b481847657c1b3f0a651407d53bb2ce552e201cbaf7e020b062c613cd0844bc_1 phases=1 bus1=node_419212520.1.4 conn=wye kv=0.1200 pf=1 pmpp=2.10 kva=2.10 irradiance=1 temperature=25 %cutin=20 %cutout=20 effcurve=MyEff P-TCurve=MyPvsT Daily=IRRAD_DIA TDaily=TEMP_DIA
New PVSystem.GD_4b481847657c1b3f0a651407d53bb2ce552e201cbaf7e020b062c613cd0844bc_2 phases=1 bus1=node_419212520.2.4 conn=wye kv=0.1200 pf=1 pmpp=2.10 kva=2.10 irradiance=1 temperature=25 %cutin=20 %cutout=20 effcurve=MyEff P-TCurve=MyPvsT Daily=IRRAD_DIA TDaily=TEMP_DIA
New PVSystem.GD_ad6f6fdcbbc0c3dfbfe4b6b38b7325dfea63e8625f98763f945b33b5946a7d76_1 phases=1 bus1=node_419254307.1.4 conn=wye kv=0.1200 pf=1 pmpp=5.24 kva=5.24 irradiance=1 temperature=25 %cutin=20 %cutout=20 effcurve=MyEff P-TCurve=MyPvsT Daily=IRRAD_DIA TDaily=TEMP_DIA
New PVSystem.GD_ad6f6fdcbbc0c3dfbfe4b6b38b7325dfea63e8625f98763f945b33b5946a7d76_2 phases=1 bus1=node_419254307.2.4 conn=wye kv=0.1200 pf=1 pmpp=5.24 kva=5.24 irradiance=1 temperature=25 %cutin=20 %cutout=20 effcurve=MyEff P-TCurve=MyPvsT Daily=IRRAD_DIA TDaily=TEMP_DIA
New PVSystem.GD_60fd55c2bc810a64f2408c5995627e3e70761c4ab0b59638a14168b5a34c24e6_1 phases=1 bus1=node_419254748.1.4 conn=wye kv=0.1270 pf=1 pmpp=1.04 kva=1.04 irradiance=1 temperature=25 %cutin=20 %cutout=20 effcurve=MyEff P-TCurve=MyPvsT Daily=IRRAD_DIA TDaily=TEMP_DIA
New PVSystem.GD_60fd55c2bc810a64f2408c5995627e3e70761c4ab0b59638a14168b5a34c24e6_2 phases=1 bus1=node_419254748.2.4 conn=wye kv=0.1270 pf=1 pmpp=1.04 kva=1.04 irradiance=1 temperature=25 %cutin=20 %cutout=20 effcurve=MyEff P-TCurve=MyPvsT Daily=IRRAD_DIA TDaily=TEMP_DIA
New PVSystem.GD_60fd55c2bc810a64f2408c5995627e3e70761c4ab0b59638a14168b5a34c24e6_3 phases=1 bus1=node_419254748.3.4 conn=wye kv=0.1270 pf=1 pmpp=1.04 kva=1.04 irradiance=1 temperature=25 %cutin=20 %cutout=20 effcurve=MyEff P-TCurve=MyPvsT Daily=IRRAD_DIA TDaily=TEMP_DIA
New PVSystem.GD_8786bab23161f69a86cbfeb8c4f3b2a6149f74d2f9af9f7161df15845a87fac1_1 phases=1 bus1=node_419254748.1.4 conn=wye kv=0.1270 pf=1 pmpp=2.19 kva=2.19 irradiance=1 temperature=25 %cutin=20 %cutout=20 effcurve=MyEff P-TCurve=MyPvsT Daily=IRRAD_DIA TDaily=TEMP_DIA
New PVSystem.GD_8786bab23161f69a86cbfeb8c4f3b2a6149f74d2f9af9f7161df15845a87fac1_2 phases=1 bus1=node_419254748.2.4 conn=wye kv=0.1270 pf=1 pmpp=2.19 kva=2.19 irradiance=1 temperature=25 %cutin=20 %cutout=20 effcurve=MyEff P-TCurve=MyPvsT Daily=IRRAD_DIA TDaily=TEMP_DIA
New PVSystem.GD_8786bab23161f69a86cbfeb8c4f3b2a6149f74d2f9af9f7161df15845a87fac1_3 phases=1 bus1=node_419254748.3.4 conn=wye kv=0.1270 pf=1 pmpp=2.19 kva=2.19 irradiance=1 temperature=25 %cutin=20 %cutout=20 effcurve=MyEff P-TCurve=MyPvsT Daily=IRRAD_DIA TDaily=TEMP_DIA
New PVSystem.GD_0969dac18ca44360bb027c076fa8f94bd0929b4049a2d3260b8349f9c964ca19_1 phases=1 bus1=node_419254748.1.4 conn=wye kv=0.1270 pf=1 pmpp=0.88 kva=0.88 irradiance=1 temperature=25 %cutin=20 %cutout=20 effcurve=MyEff P-TCurve=MyPvsT Daily=IRRAD_DIA TDaily=TEMP_DIA
New PVSystem.GD_0969dac18ca44360bb027c076fa8f94bd0929b4049a2d3260b8349f9c964ca19_2 phases=1 bus1=node_419254748.2.4 conn=wye kv=0.1270 pf=1 pmpp=0.88 kva=0.88 irradiance=1 temperature=25 %cutin=20 %cutout=20 effcurve=MyEff P-TCurve=MyPvsT Daily=IRRAD_DIA TDaily=TEMP_DIA
New PVSystem.GD_0969dac18ca44360bb027c076fa8f94bd0929b4049a2d3260b8349f9c964ca19_3 phases=1 bus1=node_419254748.3.4 conn=wye kv=0.1270 pf=1 pmpp=0.88 kva=0.88 irradiance=1 temperature=25 %cutin=20 %cutout=20 effcurve=MyEff P-TCurve=MyPvsT Daily=IRRAD_DIA TDaily=TEMP_DIA
New PVSystem.GD_7c931cb9795d52182f518907dab368ede8893d8f4057307d47cc2418799bbc10_1 phases=1 bus1=node_419254748.1.4 conn=wye kv=0.1270 pf=1 pmpp=1.39 kva=1.39 irradiance=1 temperature=25 %cutin=20 %cutout=20 effcurve=MyEff P-TCurve=MyPvsT Daily=IRRAD_DIA TDaily=TEMP_DIA
New PVSystem.GD_7c931cb9795d52182f518907dab368ede8893d8f4057307d47cc2418799bbc10_2 phases=1 bus1=node_419254748.2.4 conn=wye kv=0.1270 pf=1 pmpp=1.39 kva=1.39 irradiance=1 temperature=25 %cutin=20 %cutout=20 effcurve=MyEff P-TCurve=MyPvsT Daily=IRRAD_DIA TDaily=TEMP_DIA
New PVSystem.GD_7c931cb9795d52182f518907dab368ede8893d8f4057307d47cc2418799bbc10_3 phases=1 bus1=node_419254748.3.4 conn=wye kv=0.1270 pf=1 pmpp=1.39 kva=1.39 irradiance=1 temperature=25 %cutin=20 %cutout=20 effcurve=MyEff P-TCurve=MyPvsT Daily=IRRAD_DIA TDaily=TEMP_DIA
New PVSystem.GD_977562fa84079ee62d60e2c84b35dcbd644dc086768c3c8faa875dc3dc400b82_1 phases=1 bus1=node_419254748.1.4 conn=wye kv=0.1270 pf=1 pmpp=0.59 kva=0.59 irradiance=1 temperature=25 %cutin=20 %cutout=20 effcurve=MyEff P-TCurve=MyPvsT Daily=IRRAD_DIA TDaily=TEMP_DIA
New PVSystem.GD_977562fa84079ee62d60e2c84b35dcbd644dc086768c3c8faa875dc3dc400b82_2 phases=1 bus1=node_419254748.2.4 conn=wye kv=0.1270 pf=1 pmpp=0.59 kva=0.59 irradiance=1 temperature=25 %cutin=20 %cutout=20 effcurve=MyEff P-TCurve=MyPvsT Daily=IRRAD_DIA TDaily=TEMP_DIA
New PVSystem.GD_977562fa84079ee62d60e2c84b35dcbd644dc086768c3c8faa875dc3dc400b82_3 phases=1 bus1=node_419254748.3.4 conn=wye kv=0.1270 pf=1 pmpp=0.59 kva=0.59 irradiance=1 temperature=25 %cutin=20 %cutout=20 effcurve=MyEff P-TCurve=MyPvsT Daily=IRRAD_DIA TDaily=TEMP_DIA
New PVSystem.GD_05f56fe7b7437bf886c205540eaded6ac06f0ff27053725fc40d5a27bd9814df_1 phases=1 bus1=node_419254748.1.4 conn=wye kv=0.1270 pf=1 pmpp=3.89 kva=3.89 irradiance=1 temperature=25 %cutin=20 %cutout=20 effcurve=MyEff P-TCurve=MyPvsT Daily=IRRAD_DIA TDaily=TEMP_DIA
New PVSystem.GD_05f56fe7b7437bf886c205540eaded6ac06f0ff27053725fc40d5a27bd9814df_2 phases=1 bus1=node_419254748.2.4 conn=wye kv=0.1270 pf=1 pmpp=3.89 kva=3.89 irradiance=1 temperature=25 %cutin=20 %cutout=20 effcurve=MyEff P-TCurve=MyPvsT Daily=IRRAD_DIA TDaily=TEMP_DIA
New PVSystem.GD_05f56fe7b7437bf886c205540eaded6ac06f0ff27053725fc40d5a27bd9814df_3 phases=1 bus1=node_419254748.3.4 conn=wye kv=0.1270 pf=1 pmpp=3.89 kva=3.89 irradiance=1 temperature=25 %cutin=20 %cutout=20 effcurve=MyEff P-TCurve=MyPvsT Daily=IRRAD_DIA TDaily=TEMP_DIA
New PVSystem.GD_a6d1f3558f07b05e3da467e621ea001c316bd9ceee4a7a811baf0843d9c2a54e_1 phases=1 bus1=node_419212922.1.4 conn=wye kv=0.1200 pf=1 pmpp=3.32 kva=3.32 irradiance=1 temperature=25 %cutin=20 %cutout=20 effcurve=MyEff P-TCurve=MyPvsT Daily=IRRAD_DIA TDaily=TEMP_DIA
New PVSystem.GD_a6d1f3558f07b05e3da467e621ea001c316bd9ceee4a7a811baf0843d9c2a54e_2 phases=1 bus1=node_419212922.2.4 conn=wye kv=0.1200 pf=1 pmpp=3.32 kva=3.32 irradiance=1 temperature=25 %cutin=20 %cutout=20 effcurve=MyEff P-TCurve=MyPvsT Daily=IRRAD_DIA TDaily=TEMP_DIA
New PVSystem.GD_8aefce0059fe832f0e73de82933990f286e514fd7b7b698318d3ebe6a8802e95_1 phases=1 bus1=node_419255672.1.4 conn=wye kv=0.1270 pf=1 pmpp=0.47 kva=0.47 irradiance=1 temperature=25 %cutin=20 %cutout=20 effcurve=MyEff P-TCurve=MyPvsT Daily=IRRAD_DIA TDaily=TEMP_DIA
New PVSystem.GD_8aefce0059fe832f0e73de82933990f286e514fd7b7b698318d3ebe6a8802e95_2 phases=1 bus1=node_419255672.2.4 conn=wye kv=0.1270 pf=1 pmpp=0.47 kva=0.47 irradiance=1 temperature=25 %cutin=20 %cutout=20 effcurve=MyEff P-TCurve=MyPvsT Daily=IRRAD_DIA TDaily=TEMP_DIA
New PVSystem.GD_8aefce0059fe832f0e73de82933990f286e514fd7b7b698318d3ebe6a8802e95_3 phases=1 bus1=node_419255672.3.4 conn=wye kv=0.1270 pf=1 pmpp=0.47 kva=0.47 irradiance=1 temperature=25 %cutin=20 %cutout=20 effcurve=MyEff P-TCurve=MyPvsT Daily=IRRAD_DIA TDaily=TEMP_DIA
New PVSystem.GD_4e7ec9424db507efec12cdf198ef70a1afeb012103d5d12665430ae16f8f1396_1 phases=1 bus1=node_419255672.1.4 conn=wye kv=0.1270 pf=1 pmpp=4.93 kva=4.93 irradiance=1 temperature=25 %cutin=20 %cutout=20 effcurve=MyEff P-TCurve=MyPvsT Daily=IRRAD_DIA TDaily=TEMP_DIA
New PVSystem.GD_4e7ec9424db507efec12cdf198ef70a1afeb012103d5d12665430ae16f8f1396_2 phases=1 bus1=node_419255672.2.4 conn=wye kv=0.1270 pf=1 pmpp=4.93 kva=4.93 irradiance=1 temperature=25 %cutin=20 %cutout=20 effcurve=MyEff P-TCurve=MyPvsT Daily=IRRAD_DIA TDaily=TEMP_DIA
New PVSystem.GD_4e7ec9424db507efec12cdf198ef70a1afeb012103d5d12665430ae16f8f1396_3 phases=1 bus1=node_419255672.3.4 conn=wye kv=0.1270 pf=1 pmpp=4.93 kva=4.93 irradiance=1 temperature=25 %cutin=20 %cutout=20 effcurve=MyEff P-TCurve=MyPvsT Daily=IRRAD_DIA TDaily=TEMP_DIA
New PVSystem.GD_98cf3df7538ecd5cd0976cdbd8d989cfbc26dedea8a15db0058cc4dc7f7a2f41_1 phases=1 bus1=node_419255672.1.4 conn=wye kv=0.1270 pf=1 pmpp=0.08 kva=0.10 irradiance=1 temperature=25 %cutin=20 %cutout=20 effcurve=MyEff P-TCurve=MyPvsT Daily=IRRAD_DIA TDaily=TEMP_DIA
New PVSystem.GD_98cf3df7538ecd5cd0976cdbd8d989cfbc26dedea8a15db0058cc4dc7f7a2f41_2 phases=1 bus1=node_419255672.2.4 conn=wye kv=0.1270 pf=1 pmpp=0.08 kva=0.10 irradiance=1 temperature=25 %cutin=20 %cutout=20 effcurve=MyEff P-TCurve=MyPvsT Daily=IRRAD_DIA TDaily=TEMP_DIA
New PVSystem.GD_98cf3df7538ecd5cd0976cdbd8d989cfbc26dedea8a15db0058cc4dc7f7a2f41_3 phases=1 bus1=node_419255672.3.4 conn=wye kv=0.1270 pf=1 pmpp=0.08 kva=0.10 irradiance=1 temperature=25 %cutin=20 %cutout=20 effcurve=MyEff P-TCurve=MyPvsT Daily=IRRAD_DIA TDaily=TEMP_DIA
New PVSystem.GD_e3375cc8850c8b26d107384feed3d6abec67c43adc233d00e2d0e6a670115353_1 phases=1 bus1=node_419393709.1.4 conn=wye kv=0.1200 pf=1 pmpp=8.11 kva=8.11 irradiance=1 temperature=25 %cutin=20 %cutout=20 effcurve=MyEff P-TCurve=MyPvsT Daily=IRRAD_DIA TDaily=TEMP_DIA
New PVSystem.GD_e3375cc8850c8b26d107384feed3d6abec67c43adc233d00e2d0e6a670115353_2 phases=1 bus1=node_419393709.2.4 conn=wye kv=0.1200 pf=1 pmpp=8.11 kva=8.11 irradiance=1 temperature=25 %cutin=20 %cutout=20 effcurve=MyEff P-TCurve=MyPvsT Daily=IRRAD_DIA TDaily=TEMP_DIA
New PVSystem.GD_39fefb732c55256d28bd8ffe03aa02fdf72bf6f813eae075b2670a081156e825_1 phases=1 bus1=node_419257433.1.4 conn=wye kv=0.1270 pf=1 pmpp=1.81 kva=1.81 irradiance=1 temperature=25 %cutin=20 %cutout=20 effcurve=MyEff P-TCurve=MyPvsT Daily=IRRAD_DIA TDaily=TEMP_DIA
New PVSystem.GD_39fefb732c55256d28bd8ffe03aa02fdf72bf6f813eae075b2670a081156e825_2 phases=1 bus1=node_419257433.2.4 conn=wye kv=0.1270 pf=1 pmpp=1.81 kva=1.81 irradiance=1 temperature=25 %cutin=20 %cutout=20 effcurve=MyEff P-TCurve=MyPvsT Daily=IRRAD_DIA TDaily=TEMP_DIA
New PVSystem.GD_39fefb732c55256d28bd8ffe03aa02fdf72bf6f813eae075b2670a081156e825_3 phases=1 bus1=node_419257433.3.4 conn=wye kv=0.1270 pf=1 pmpp=1.81 kva=1.81 irradiance=1 temperature=25 %cutin=20 %cutout=20 effcurve=MyEff P-TCurve=MyPvsT Daily=IRRAD_DIA TDaily=TEMP_DIA
New PVSystem.GD_f9a399e017e190613a283c0b09aeda2ed5dbb97b28884d729bffbc5f41414ff0_1 phases=1 bus1=node_419257433.1.4 conn=wye kv=0.1270 pf=1 pmpp=0.99 kva=0.99 irradiance=1 temperature=25 %cutin=20 %cutout=20 effcurve=MyEff P-TCurve=MyPvsT Daily=IRRAD_DIA TDaily=TEMP_DIA
New PVSystem.GD_f9a399e017e190613a283c0b09aeda2ed5dbb97b28884d729bffbc5f41414ff0_2 phases=1 bus1=node_419257433.2.4 conn=wye kv=0.1270 pf=1 pmpp=0.99 kva=0.99 irradiance=1 temperature=25 %cutin=20 %cutout=20 effcurve=MyEff P-TCurve=MyPvsT Daily=IRRAD_DIA TDaily=TEMP_DIA
New PVSystem.GD_f9a399e017e190613a283c0b09aeda2ed5dbb97b28884d729bffbc5f41414ff0_3 phases=1 bus1=node_419257433.3.4 conn=wye kv=0.1270 pf=1 pmpp=0.99 kva=0.99 irradiance=1 temperature=25 %cutin=20 %cutout=20 effcurve=MyEff P-TCurve=MyPvsT Daily=IRRAD_DIA TDaily=TEMP_DIA
New PVSystem.GD_4546b8227212205347bb7e757c708b58414dfa459fed9adeaac7b7a994d66a4d_1 phases=1 bus1=node_419257433.1.4 conn=wye kv=0.1270 pf=1 pmpp=2.13 kva=2.13 irradiance=1 temperature=25 %cutin=20 %cutout=20 effcurve=MyEff P-TCurve=MyPvsT Daily=IRRAD_DIA TDaily=TEMP_DIA
New PVSystem.GD_4546b8227212205347bb7e757c708b58414dfa459fed9adeaac7b7a994d66a4d_2 phases=1 bus1=node_419257433.2.4 conn=wye kv=0.1270 pf=1 pmpp=2.13 kva=2.13 irradiance=1 temperature=25 %cutin=20 %cutout=20 effcurve=MyEff P-TCurve=MyPvsT Daily=IRRAD_DIA TDaily=TEMP_DIA
New PVSystem.GD_4546b8227212205347bb7e757c708b58414dfa459fed9adeaac7b7a994d66a4d_3 phases=1 bus1=node_419257433.3.4 conn=wye kv=0.1270 pf=1 pmpp=2.13 kva=2.13 irradiance=1 temperature=25 %cutin=20 %cutout=20 effcurve=MyEff P-TCurve=MyPvsT Daily=IRRAD_DIA TDaily=TEMP_DIA
New PVSystem.GD_25983ff7e8792f25af4359bdb1133faab96acb49664e0f57aca65436ec143472_1 phases=1 bus1=node_419257433.1.4 conn=wye kv=0.1270 pf=1 pmpp=2.69 kva=2.69 irradiance=1 temperature=25 %cutin=20 %cutout=20 effcurve=MyEff P-TCurve=MyPvsT Daily=IRRAD_DIA TDaily=TEMP_DIA
New PVSystem.GD_25983ff7e8792f25af4359bdb1133faab96acb49664e0f57aca65436ec143472_2 phases=1 bus1=node_419257433.2.4 conn=wye kv=0.1270 pf=1 pmpp=2.69 kva=2.69 irradiance=1 temperature=25 %cutin=20 %cutout=20 effcurve=MyEff P-TCurve=MyPvsT Daily=IRRAD_DIA TDaily=TEMP_DIA
New PVSystem.GD_25983ff7e8792f25af4359bdb1133faab96acb49664e0f57aca65436ec143472_3 phases=1 bus1=node_419257433.3.4 conn=wye kv=0.1270 pf=1 pmpp=2.69 kva=2.69 irradiance=1 temperature=25 %cutin=20 %cutout=20 effcurve=MyEff P-TCurve=MyPvsT Daily=IRRAD_DIA TDaily=TEMP_DIA
New PVSystem.GD_b473e03cb48c8b61a1b01204af5e8512d87c3866455fae24020870cd70dd4048_1 phases=1 bus1=node_419639291.1.4 conn=wye kv=0.1200 pf=1 pmpp=3.49 kva=3.49 irradiance=1 temperature=25 %cutin=20 %cutout=20 effcurve=MyEff P-TCurve=MyPvsT Daily=IRRAD_DIA TDaily=TEMP_DIA
New PVSystem.GD_b473e03cb48c8b61a1b01204af5e8512d87c3866455fae24020870cd70dd4048_2 phases=1 bus1=node_419639291.2.4 conn=wye kv=0.1200 pf=1 pmpp=3.49 kva=3.49 irradiance=1 temperature=25 %cutin=20 %cutout=20 effcurve=MyEff P-TCurve=MyPvsT Daily=IRRAD_DIA TDaily=TEMP_DIA
New PVSystem.GD_30a642f4d5378c51646debc109a33cad446f0d4dceeeee9fbaeea89f6491758e_1 phases=1 bus1=node_419426323.1.4 conn=wye kv=0.1200 pf=1 pmpp=2.63 kva=2.63 irradiance=1 temperature=25 %cutin=20 %cutout=20 effcurve=MyEff P-TCurve=MyPvsT Daily=IRRAD_DIA TDaily=TEMP_DIA
New PVSystem.GD_30a642f4d5378c51646debc109a33cad446f0d4dceeeee9fbaeea89f6491758e_2 phases=1 bus1=node_419426323.2.4 conn=wye kv=0.1200 pf=1 pmpp=2.63 kva=2.63 irradiance=1 temperature=25 %cutin=20 %cutout=20 effcurve=MyEff P-TCurve=MyPvsT Daily=IRRAD_DIA TDaily=TEMP_DIA
New PVSystem.GD_d4fb9b12c26439ffca7b57d815e89d2ca6bfcefb256a0d2ba260cf9217f0c0e4_1 phases=1 bus1=node_419393781.1.4 conn=wye kv=0.1200 pf=1 pmpp=5.21 kva=5.21 irradiance=1 temperature=25 %cutin=20 %cutout=20 effcurve=MyEff P-TCurve=MyPvsT Daily=IRRAD_DIA TDaily=TEMP_DIA
New PVSystem.GD_d4fb9b12c26439ffca7b57d815e89d2ca6bfcefb256a0d2ba260cf9217f0c0e4_2 phases=1 bus1=node_419393781.2.4 conn=wye kv=0.1200 pf=1 pmpp=5.21 kva=5.21 irradiance=1 temperature=25 %cutin=20 %cutout=20 effcurve=MyEff P-TCurve=MyPvsT Daily=IRRAD_DIA TDaily=TEMP_DIA
New PVSystem.GD_2d0489b5129578a19c8844765cc3ea710cb61b17e84a1a0aab44c4b38c7ca6da_1 phases=1 bus1=node_419256584.1.4 conn=wye kv=0.1200 pf=1 pmpp=1.63 kva=1.63 irradiance=1 temperature=25 %cutin=20 %cutout=20 effcurve=MyEff P-TCurve=MyPvsT Daily=IRRAD_DIA TDaily=TEMP_DIA
New PVSystem.GD_2d0489b5129578a19c8844765cc3ea710cb61b17e84a1a0aab44c4b38c7ca6da_2 phases=1 bus1=node_419256584.2.4 conn=wye kv=0.1200 pf=1 pmpp=1.63 kva=1.63 irradiance=1 temperature=25 %cutin=20 %cutout=20 effcurve=MyEff P-TCurve=MyPvsT Daily=IRRAD_DIA TDaily=TEMP_DIA
New PVSystem.GD_01c8fcfdf0ae187485ae41281b9613b4dc69443ceaf9f5d23f142ae79cbac6f9_1 phases=1 bus1=node_419293948.1.4 conn=wye kv=0.1270 pf=1 pmpp=0.77 kva=0.77 irradiance=1 temperature=25 %cutin=20 %cutout=20 effcurve=MyEff P-TCurve=MyPvsT Daily=IRRAD_DIA TDaily=TEMP_DIA
New PVSystem.GD_01c8fcfdf0ae187485ae41281b9613b4dc69443ceaf9f5d23f142ae79cbac6f9_2 phases=1 bus1=node_419293948.2.4 conn=wye kv=0.1270 pf=1 pmpp=0.77 kva=0.77 irradiance=1 temperature=25 %cutin=20 %cutout=20 effcurve=MyEff P-TCurve=MyPvsT Daily=IRRAD_DIA TDaily=TEMP_DIA
New PVSystem.GD_01c8fcfdf0ae187485ae41281b9613b4dc69443ceaf9f5d23f142ae79cbac6f9_3 phases=1 bus1=node_419293948.3.4 conn=wye kv=0.1270 pf=1 pmpp=0.77 kva=0.77 irradiance=1 temperature=25 %cutin=20 %cutout=20 effcurve=MyEff P-TCurve=MyPvsT Daily=IRRAD_DIA TDaily=TEMP_DIA
New PVSystem.GD_567aeb255133879d2484fd6611069a3ec81408553bd3a82e1175d7fc14aa175c_1 phases=1 bus1=node_419293948.1.4 conn=wye kv=0.1270 pf=1 pmpp=0.30 kva=0.30 irradiance=1 temperature=25 %cutin=20 %cutout=20 effcurve=MyEff P-TCurve=MyPvsT Daily=IRRAD_DIA TDaily=TEMP_DIA
New PVSystem.GD_567aeb255133879d2484fd6611069a3ec81408553bd3a82e1175d7fc14aa175c_2 phases=1 bus1=node_419293948.2.4 conn=wye kv=0.1270 pf=1 pmpp=0.30 kva=0.30 irradiance=1 temperature=25 %cutin=20 %cutout=20 effcurve=MyEff P-TCurve=MyPvsT Daily=IRRAD_DIA TDaily=TEMP_DIA
New PVSystem.GD_567aeb255133879d2484fd6611069a3ec81408553bd3a82e1175d7fc14aa175c_3 phases=1 bus1=node_419293948.3.4 conn=wye kv=0.1270 pf=1 pmpp=0.30 kva=0.30 irradiance=1 temperature=25 %cutin=20 %cutout=20 effcurve=MyEff P-TCurve=MyPvsT Daily=IRRAD_DIA TDaily=TEMP_DIA
New PVSystem.GD_f9ad5167bab7729674773866cda6f276ed195dccdf121ff22e729a9b09ebdeaf_1 phases=1 bus1=node_419293948.1.4 conn=wye kv=0.1270 pf=1 pmpp=0.83 kva=0.83 irradiance=1 temperature=25 %cutin=20 %cutout=20 effcurve=MyEff P-TCurve=MyPvsT Daily=IRRAD_DIA TDaily=TEMP_DIA
New PVSystem.GD_f9ad5167bab7729674773866cda6f276ed195dccdf121ff22e729a9b09ebdeaf_2 phases=1 bus1=node_419293948.2.4 conn=wye kv=0.1270 pf=1 pmpp=0.83 kva=0.83 irradiance=1 temperature=25 %cutin=20 %cutout=20 effcurve=MyEff P-TCurve=MyPvsT Daily=IRRAD_DIA TDaily=TEMP_DIA
New PVSystem.GD_f9ad5167bab7729674773866cda6f276ed195dccdf121ff22e729a9b09ebdeaf_3 phases=1 bus1=node_419293948.3.4 conn=wye kv=0.1270 pf=1 pmpp=0.83 kva=0.83 irradiance=1 temperature=25 %cutin=20 %cutout=20 effcurve=MyEff P-TCurve=MyPvsT Daily=IRRAD_DIA TDaily=TEMP_DIA
New PVSystem.GD_24caa43c7c7110b4ed731d968eef66e72e48bbfd20afed65137ea0935e4248e7_1 phases=1 bus1=node_419498197.1.4 conn=wye kv=0.1200 pf=1 pmpp=0.38 kva=0.38 irradiance=1 temperature=25 %cutin=20 %cutout=20 effcurve=MyEff P-TCurve=MyPvsT Daily=IRRAD_DIA TDaily=TEMP_DIA
New PVSystem.GD_24caa43c7c7110b4ed731d968eef66e72e48bbfd20afed65137ea0935e4248e7_2 phases=1 bus1=node_419498197.2.4 conn=wye kv=0.1200 pf=1 pmpp=0.38 kva=0.38 irradiance=1 temperature=25 %cutin=20 %cutout=20 effcurve=MyEff P-TCurve=MyPvsT Daily=IRRAD_DIA TDaily=TEMP_DIA
New PVSystem.GD_731e2eb75c6141fe09245b9cf2dddf0d2d3cf520aea10a68a5ddf85cf0af0d50_1 phases=1 bus1=node_419214257.1.4 conn=wye kv=0.1270 pf=1 pmpp=13.76 kva=13.76 irradiance=1 temperature=25 %cutin=20 %cutout=20 effcurve=MyEff P-TCurve=MyPvsT Daily=IRRAD_DIA TDaily=TEMP_DIA
New PVSystem.GD_731e2eb75c6141fe09245b9cf2dddf0d2d3cf520aea10a68a5ddf85cf0af0d50_2 phases=1 bus1=node_419214257.2.4 conn=wye kv=0.1270 pf=1 pmpp=13.76 kva=13.76 irradiance=1 temperature=25 %cutin=20 %cutout=20 effcurve=MyEff P-TCurve=MyPvsT Daily=IRRAD_DIA TDaily=TEMP_DIA
New PVSystem.GD_731e2eb75c6141fe09245b9cf2dddf0d2d3cf520aea10a68a5ddf85cf0af0d50_3 phases=1 bus1=node_419214257.3.4 conn=wye kv=0.1270 pf=1 pmpp=13.76 kva=13.76 irradiance=1 temperature=25 %cutin=20 %cutout=20 effcurve=MyEff P-TCurve=MyPvsT Daily=IRRAD_DIA TDaily=TEMP_DIA
New PVSystem.GD_3316b547da16df824106e43d55d25f07ca6bf63c88a04ac2ff0973cdcb08a62e_1 phases=1 bus1=node_419214176.1.4 conn=wye kv=0.1200 pf=1 pmpp=2.76 kva=2.76 irradiance=1 temperature=25 %cutin=20 %cutout=20 effcurve=MyEff P-TCurve=MyPvsT Daily=IRRAD_DIA TDaily=TEMP_DIA
New PVSystem.GD_3316b547da16df824106e43d55d25f07ca6bf63c88a04ac2ff0973cdcb08a62e_2 phases=1 bus1=node_419214176.2.4 conn=wye kv=0.1200 pf=1 pmpp=2.76 kva=2.76 irradiance=1 temperature=25 %cutin=20 %cutout=20 effcurve=MyEff P-TCurve=MyPvsT Daily=IRRAD_DIA TDaily=TEMP_DIA
New PVSystem.GD_c7a76f62b661ad97441fbfb2b27240c765091caa5a74485753d313e197a72f91_1 phases=1 bus1=node_419256362.1.4 conn=wye kv=0.1270 pf=1 pmpp=0.54 kva=0.54 irradiance=1 temperature=25 %cutin=20 %cutout=20 effcurve=MyEff P-TCurve=MyPvsT Daily=IRRAD_DIA TDaily=TEMP_DIA
New PVSystem.GD_c7a76f62b661ad97441fbfb2b27240c765091caa5a74485753d313e197a72f91_2 phases=1 bus1=node_419256362.2.4 conn=wye kv=0.1270 pf=1 pmpp=0.54 kva=0.54 irradiance=1 temperature=25 %cutin=20 %cutout=20 effcurve=MyEff P-TCurve=MyPvsT Daily=IRRAD_DIA TDaily=TEMP_DIA
New PVSystem.GD_c7a76f62b661ad97441fbfb2b27240c765091caa5a74485753d313e197a72f91_3 phases=1 bus1=node_419256362.3.4 conn=wye kv=0.1270 pf=1 pmpp=0.54 kva=0.54 irradiance=1 temperature=25 %cutin=20 %cutout=20 effcurve=MyEff P-TCurve=MyPvsT Daily=IRRAD_DIA TDaily=TEMP_DIA
New PVSystem.GD_2e17a70326d674bf43939cbe0f6f99be3079c8ba8bd249a1bf56df3eec31b5f5_1 phases=1 bus1=node_419256362.1.4 conn=wye kv=0.1270 pf=1 pmpp=0.83 kva=0.83 irradiance=1 temperature=25 %cutin=20 %cutout=20 effcurve=MyEff P-TCurve=MyPvsT Daily=IRRAD_DIA TDaily=TEMP_DIA
New PVSystem.GD_2e17a70326d674bf43939cbe0f6f99be3079c8ba8bd249a1bf56df3eec31b5f5_2 phases=1 bus1=node_419256362.2.4 conn=wye kv=0.1270 pf=1 pmpp=0.83 kva=0.83 irradiance=1 temperature=25 %cutin=20 %cutout=20 effcurve=MyEff P-TCurve=MyPvsT Daily=IRRAD_DIA TDaily=TEMP_DIA
New PVSystem.GD_2e17a70326d674bf43939cbe0f6f99be3079c8ba8bd249a1bf56df3eec31b5f5_3 phases=1 bus1=node_419256362.3.4 conn=wye kv=0.1270 pf=1 pmpp=0.83 kva=0.83 irradiance=1 temperature=25 %cutin=20 %cutout=20 effcurve=MyEff P-TCurve=MyPvsT Daily=IRRAD_DIA TDaily=TEMP_DIA
New PVSystem.GD_6b1bfac017c1f2b827d09564acf19726174337cc6a521f9a05c466312dfed39b_1 phases=1 bus1=node_419256362.1.4 conn=wye kv=0.1270 pf=1 pmpp=1.03 kva=1.03 irradiance=1 temperature=25 %cutin=20 %cutout=20 effcurve=MyEff P-TCurve=MyPvsT Daily=IRRAD_DIA TDaily=TEMP_DIA
New PVSystem.GD_6b1bfac017c1f2b827d09564acf19726174337cc6a521f9a05c466312dfed39b_2 phases=1 bus1=node_419256362.2.4 conn=wye kv=0.1270 pf=1 pmpp=1.03 kva=1.03 irradiance=1 temperature=25 %cutin=20 %cutout=20 effcurve=MyEff P-TCurve=MyPvsT Daily=IRRAD_DIA TDaily=TEMP_DIA
...
